13 - Lily Roo

Part of Analog Myth.

This song is part of Lily Roo's story: not becoming someone else, just becoming a little less hidden.

Lyrics:

(Verse 1)
13.
No light.

No door.
No sign.

Same face.
New line.

Still quiet.
Still mine.

Out to eat
I used to hide

behind the menu,
behind the glass.

My turn comes.
I look up fast.

"Spicy rigatoni."

That's it.
I asked.

---

(Chorus)
13.
Small jump.

Not brave.
Just enough.

Still weird.
Still me.

Less scared
to be seen.

---

(Verse 2)
Grocery store.
Leave the cart.

One aisle over.
Beating heart.

Grab the thing.
Walk back smart.

No one knows.
I do.

That's the part.

---

(Chorus)
13.
Small jump.

Not brave.
Just enough.

Still weird.
Still me.

Less scared
to be seen.

---

(Verse 3)
Teacher asks.
No one speaks.

Hints keep coming.
Room feels weak.

I know it.
Raise my hand.

Say the thing.
Room can breathe again.

---

(Bridge)
Tomato sauce.
Tomato paste.

Cream in the pan.
Nothing to waste.

No seasoning.
No disguise.

I know enough
when I decide.

---

(Final Chorus)
13.
Small jump.

Not brave.
Just enough.

I order.
I answer.

I leave.
I come back.

Still weird.
Still me.

Less hidden.
Less scared.

Archive: https://www.lilyroo.com/music.html

#LilyRoo #AnalogMyth
